Version 4
SHEET 1 880 684
WIRE -336 -144 -336 -320
WIRE -432 -112 -512 -112
WIRE -432 -80 -512 -80
WIRE -688 -64 -688 -224
WIRE -432 -48 -512 -48
WIRE -784 -32 -864 -32
WIRE -784 0 -864 0
WIRE -1056 32 -1056 -160
WIRE -784 32 -864 32
WIRE -336 32 -416 32
WIRE -1152 64 -1232 64
WIRE -432 64 -512 64
WIRE 272 80 272 -64
WIRE -1152 96 -1232 96
WIRE -432 96 -512 96
WIRE 64 96 64 64
WIRE 144 96 64 96
WIRE 0 112 0 64
WIRE 144 112 0 112
WIRE -1408 128 -1408 -32
WIRE -1152 128 -1232 128
WIRE -688 128 -768 128
WIRE -432 128 -512 128
WIRE -64 128 -64 64
WIRE 144 128 -64 128
WIRE -128 144 -128 64
WIRE 144 144 -128 144
WIRE -1504 160 -1584 160
WIRE -784 160 -864 160
WIRE 144 160 -160 160
WIRE 496 160 384 160
WIRE 144 176 -128 176
WIRE -1504 192 -1584 192
WIRE -784 192 -864 192
WIRE 144 192 -64 192
WIRE -336 208 -416 208
WIRE 144 208 0 208
WIRE -1504 224 -1584 224
WIRE -784 224 -864 224
WIRE 144 224 64 224
WIRE -432 240 -512 240
WIRE -1152 256 -1232 256
WIRE -128 256 -128 176
WIRE -64 256 -64 192
WIRE 0 256 0 208
WIRE 64 256 64 224
WIRE -432 272 -512 272
WIRE -1152 288 -1232 288
WIRE 144 288 144 240
WIRE -432 304 -512 304
WIRE -1152 320 -1232 320
WIRE -784 336 -864 336
WIRE -784 368 -864 368
WIRE -784 400 -864 400
WIRE -432 416 -512 416
WIRE -1056 448 -1056 224
WIRE -432 448 -512 448
WIRE -432 480 -512 480
WIRE -688 560 -688 304
WIRE -336 576 -336 384
FLAG -1584 160 a1
IOPIN -1584 160 In
FLAG -1584 192 a2
IOPIN -1584 192 In
FLAG -1584 224 b1
IOPIN -1584 224 In
FLAG -1312 192 RES1
FLAG -960 96 RES2
FLAG -1232 64 a1
IOPIN -1232 64 In
FLAG -1232 96 a2
IOPIN -1232 96 In
FLAG -1232 128 b2
IOPIN -1232 128 In
FLAG -1232 256 a1
IOPIN -1232 256 In
FLAG -1232 288 a2
IOPIN -1232 288 In
FLAG -1232 320 c
IOPIN -1232 320 In
FLAG -960 288 RES3
FLAG -864 -32 a1
IOPIN -864 -32 In
FLAG -864 0 b1
IOPIN -864 0 In
FLAG -864 32 b2
IOPIN -864 32 In
FLAG -864 160 a1
IOPIN -864 160 In
FLAG -864 192 b1
IOPIN -864 192 In
FLAG -864 224 c
IOPIN -864 224 In
FLAG -864 336 a1
IOPIN -864 336 In
FLAG -864 368 b2
IOPIN -864 368 In
FLAG -864 400 c
IOPIN -864 400 In
FLAG -592 0 RES4
FLAG -592 192 RES5
FLAG -592 368 RES6
FLAG -512 -112 a2
IOPIN -512 -112 In
FLAG -512 -80 b1
IOPIN -512 -80 In
FLAG -512 -48 b2
IOPIN -512 -48 In
FLAG -512 64 a2
IOPIN -512 64 In
FLAG -512 96 b1
IOPIN -512 96 In
FLAG -512 128 c
IOPIN -512 128 In
FLAG -512 240 a2
IOPIN -512 240 In
FLAG -512 272 b2
IOPIN -512 272 In
FLAG -512 304 c
IOPIN -512 304 In
FLAG -512 416 b1
IOPIN -512 416 In
FLAG -512 448 b2
IOPIN -512 448 In
FLAG -512 480 c
IOPIN -512 480 In
FLAG -240 -80 RES7
FLAG -240 96 RES8
FLAG -240 272 RES9
FLAG -240 448 RES10
FLAG -1408 -32 VDD
IOPIN -1408 -32 In
FLAG -1056 -160 VDD
IOPIN -1056 -160 In
FLAG -1056 448 VDD
IOPIN -1056 448 In
FLAG -688 -224 VDD
IOPIN -688 -224 In
FLAG -768 128 VDD
IOPIN -768 128 In
FLAG -688 560 VDD
IOPIN -688 560 In
FLAG -336 -320 VDD
IOPIN -336 -320 In
FLAG -416 32 VDD
IOPIN -416 32 In
FLAG -416 208 VDD
IOPIN -416 208 In
FLAG -336 576 VDD
IOPIN -336 576 In
FLAG 272 -64 VDD
IOPIN 272 -64 In
FLAG 64 64 RES1
FLAG 0 64 RES2
FLAG -64 64 RES3
FLAG -128 64 RES4
FLAG -160 160 RES5
FLAG -128 256 RES6
FLAG -64 256 RES7
FLAG 0 256 RES8
FLAG 64 256 RES9
FLAG 144 288 RES10
FLAG 496 160 VOUT
IOPIN 496 160 Out
SYMBOL dimatenor 272 160 R0
SYMATTR InstName X1
SYMBOL dimatripleand -336 96 R0
SYMATTR InstName X2
SYMBOL dimatripleand -336 272 R0
SYMATTR InstName X3
SYMBOL dimatripleand -336 448 R0
SYMATTR InstName X4
SYMBOL dimatripleand -336 -80 R0
SYMATTR InstName X5
SYMBOL dimatripleand -688 0 R0
SYMATTR InstName X6
SYMBOL dimatripleand -688 192 R0
SYMATTR InstName X7
SYMBOL dimatripleand -688 368 R0
SYMATTR InstName X8
SYMBOL dimatripleand -1056 96 R0
SYMATTR InstName X9
SYMBOL dimatripleand -1056 288 R0
SYMATTR InstName X10
SYMBOL dimatripleand -1408 192 R0
SYMATTR InstName X12
