Version 4
SHEET 1 880 680
WIRE -1296 64 -1376 64
WIRE -1296 96 -1376 96
WIRE -1296 128 -1376 128
WIRE -1616 160 -1696 160
WIRE -1616 192 -1696 192
WIRE -1616 224 -1696 224
WIRE -1296 256 -1376 256
WIRE -1296 288 -1376 288
WIRE -1296 320 -1376 320
FLAG -1696 160 a1
IOPIN -1696 160 In
FLAG -1696 192 a2
IOPIN -1696 192 In
FLAG -1696 224 b1
IOPIN -1696 224 In
FLAG -1424 192 RES1
FLAG -1104 96 RES2
FLAG -1376 64 a1
IOPIN -1376 64 In
FLAG -1376 96 a2
IOPIN -1376 96 In
FLAG -1376 128 b2
IOPIN -1376 128 In
FLAG -1376 256 a1
IOPIN -1376 256 In
FLAG -1376 288 a2
IOPIN -1376 288 In
FLAG -1376 320 c
IOPIN -1376 320 In
FLAG -1104 288 RES3
SYMBOL dimatenor 272 160 R0
SYMATTR InstName X1
SYMBOL dimatripleand -336 96 R0
SYMATTR InstName X2
SYMBOL dimatripleand -336 272 R0
SYMATTR InstName X3
SYMBOL dimatripleand -336 448 R0
SYMATTR InstName X4
SYMBOL dimatripleand -336 -80 R0
SYMATTR InstName X5
SYMBOL dimatripleand -688 0 R0
SYMATTR InstName X6
SYMBOL dimatripleand -688 192 R0
SYMATTR InstName X7
SYMBOL dimatripleand -688 368 R0
SYMATTR InstName X8
SYMBOL dimatripleand -1200 96 R0
SYMATTR InstName X9
SYMBOL dimatripleand -1200 288 R0
SYMATTR InstName X10
SYMBOL dimatripleand -1520 192 R0
SYMATTR InstName X12
