Version 4
SHEET 1 960 680
WIRE 400 -64 400 -96
WIRE 400 112 400 16
WIRE -96 192 -144 192
WIRE 288 192 -16 192
WIRE 800 192 512 192
WIRE 896 192 800 192
FLAG -144 192 0
FLAG 400 -96 0
FLAG 800 272 0
FLAG 896 256 0
SYMBOL voltage 0 192 R90
WINDOW 0 -32 56 VBottom 2
WINDOW 3 32 56 VTop 2
WINDOW 123 0 0 Left 0
WINDOW 39 0 0 Left 0
SYMATTR InstName V1
SYMATTR Value PULSE(0 1 1n 10p 10p 20n 40n)
SYMBOL voltage 400 32 R180
WINDOW 0 24 96 Left 2
WINDOW 3 24 16 Left 2
WINDOW 123 0 0 Left 0
WINDOW 39 0 0 Left 0
SYMATTR InstName V3
SYMATTR Value 1
SYMBOL cap 880 192 R0
SYMATTR InstName C1
SYMATTR Value 100f
SYMBOL res 784 176 R0
SYMATTR InstName R1
SYMATTR Value 100k
SYMBOL dimanot 400 192 R0
SYMATTR InstName X1
TEXT -160 0 Left 2 !.include 90nm_bulk.txt
TEXT -160 40 Left 2 !.tran 0 100n 0 1p
