Version 4
SHEET 1 880 680
WIRE 144 64 16 64
WIRE 272 96 272 32
WIRE 144 128 144 64
WIRE 528 144 368 144
WIRE 624 144 528 144
WIRE 144 224 144 160
WIRE 144 224 16 224
FLAG 272 -48 0
FLAG -64 64 0
FLAG -64 224 0
FLAG 528 224 0
FLAG 624 208 0
SYMBOL voltage 32 64 R90
WINDOW 0 -32 56 VBottom 2
WINDOW 3 32 56 VTop 2
WINDOW 123 0 0 Left 0
WINDOW 39 0 0 Left 0
SYMATTR InstName V1
SYMATTR Value PULSE(0 1 1n 10p 10p 20n 40n)
SYMBOL voltage 32 224 R90
WINDOW 0 -32 56 VBottom 2
WINDOW 3 32 56 VTop 2
WINDOW 123 0 0 Left 0
WINDOW 39 0 0 Left 0
SYMATTR InstName V2
SYMATTR Value PULSE(0 1 1n 10p 10p 40n 80n)
SYMBOL voltage 272 48 R180
WINDOW 0 24 96 Left 2
WINDOW 3 24 16 Left 2
WINDOW 123 0 0 Left 0
WINDOW 39 0 0 Left 0
SYMATTR InstName V3
SYMATTR Value 1
SYMBOL cap 608 144 R0
SYMATTR InstName C1
SYMATTR Value 100f
SYMBOL res 512 128 R0
SYMATTR InstName R1
SYMATTR Value 100k
SYMBOL dimanor 272 144 R0
SYMATTR InstName X1
TEXT -264 -56 Left 2 !.include 90nm_bulk.txt
TEXT -256 -24 Left 2 !.tran 0 100n 0 1p
