Version 4
SHEET 1 1008 680
WIRE 320 160 64 160
WIRE 416 288 416 208
WIRE 240 304 64 304
WIRE 320 320 320 160
WIRE 240 352 240 304
WIRE 320 352 240 352
WIRE 848 352 512 352
WIRE 944 352 848 352
WIRE 320 464 320 384
WIRE 320 464 64 464
FLAG -16 160 0
FLAG -16 304 0
FLAG 416 128 0
FLAG 848 432 0
FLAG 944 416 0
FLAG -16 464 0
SYMBOL voltage 80 160 R90
WINDOW 0 -32 56 VBottom 2
WINDOW 3 32 56 VTop 2
WINDOW 123 0 0 Left 0
WINDOW 39 0 0 Left 0
SYMATTR InstName V1
SYMATTR Value PULSE(0 1 1n 10p 10p 20n 40n)
SYMBOL voltage 80 304 R90
WINDOW 0 -32 56 VBottom 2
WINDOW 3 32 56 VTop 2
WINDOW 123 0 0 Left 0
WINDOW 39 0 0 Left 0
SYMATTR InstName V2
SYMATTR Value PULSE(0 1 1n 10p 10p 40n 80n)
SYMBOL voltage 416 224 R180
WINDOW 0 24 96 Left 2
WINDOW 3 24 16 Left 2
WINDOW 123 0 0 Left 0
WINDOW 39 0 0 Left 0
SYMATTR InstName V3
SYMATTR Value 1
SYMBOL cap 928 352 R0
SYMATTR InstName C1
SYMATTR Value 100f
SYMBOL res 832 336 R0
SYMATTR InstName R1
SYMATTR Value 100k
SYMBOL voltage 80 464 R90
WINDOW 0 -32 56 VBottom 2
WINDOW 3 32 56 VTop 2
WINDOW 123 0 0 Left 0
WINDOW 39 0 0 Left 0
SYMATTR InstName V4
SYMATTR Value PULSE(0 1 1n 10p 10p 80n 160n)
SYMBOL dimatripleand 416 352 R0
SYMATTR InstName X1
TEXT -160 0 Left 2 !.include 90nm_bulk.txt
TEXT -160 40 Left 2 !.tran 0 100n 0 1p
